%chk=C:\Users\sina system\Desktop\New folder (3)\frequency.chk
# freq b3lyp/6-31g geom=connectivity

Title Card Required

0 1
 C                 -1.54889811   -1.36381494   -0.27831088
 C                 -2.38216389    1.03513272    0.19048511
 C                 -1.23492600    0.08507491   -0.04196902
 C                  1.23491638    0.08505205    0.04183692
 C                  1.54879758   -1.36383190    0.27834932
 C                  2.38227296    1.03504187   -0.19040813
 N                  0.00001471    0.57961745   -0.00006591
 H                 -1.65443507   -1.94848511    0.63595870
 H                 -0.79479220   -1.84114306   -0.89134524
 H                 -2.49551953   -1.43535411   -0.80687788
 H                 -2.82438175    0.92650057    1.18196285
 H                 -3.17585358    0.86319235   -0.53200092
 H                 -2.07263407    2.07437712    0.09484519
 H                  0.79487866   -1.84088847    0.89186871
 H                  2.49565080   -1.43538925    0.80647208
 H                  1.65376813   -1.94873671   -0.63582718
 H                  3.17565790    0.86332957    0.53247905
 H                  2.82485790    0.92604312   -1.18166044
 H                  2.07270195    2.07430786   -0.09523375
 H                  0.00000443    1.58899573   -0.00007972

 1 3 1.0 8 1.0 9 1.0 10 1.0
 2 3 1.0 11 1.0 12 1.0 13 1.0
 3 7 1.0
 4 5 1.0 6 1.0 7 1.0
 5 14 1.0 15 1.0 16 1.0
 6 17 1.0 18 1.0 19 1.0
 7 20 1.0
 8
 9
 10
 11
 12
 13
 14
 15
 16
 17
 18
 19
 20

